#======================================================================

# CRYSTAL DATA

#----------------------------------------------------------------------

data_VESTA_phase_1


_chemical_name_common                  ''
_cell_length_a                         12.41000
_cell_length_b                         8.81000
_cell_length_c                         8.23000
_cell_angle_alpha                      90
_cell_angle_beta                       93.10000
_cell_angle_gamma                      90
_space_group_name_H-M_alt              'P 21/a'
_space_group_IT_number                 14

loop_
_space_group_symop_operation_xyz
   'x, y, z'
   '-x, -y, -z'
   '-x+1/2, y+1/2, -z'
   'x+1/2, -y+1/2, z'

loop_
   _atom_site_label
   _atom_site_occupancy
   _atom_site_fract_x
   _atom_site_fract_y
   _atom_site_fract_z
   _atom_site_adp_type
   _atom_site_B_iso_or_equiv
   _atom_site_type_symbol
   C1         1.0     0.248000      0.229000      0.180000     Biso  1.000000 C
   C2         1.0     0.156000      0.193000      0.291000     Biso  1.000000 C
   C3         1.0     0.048000      0.222000      0.199000     Biso  1.000000 C
   C4         1.0     0.161000      0.142000      0.446000     Biso  1.000000 C
   C5         1.0     0.270000      0.113000      0.537000     Biso  1.000000 C
   C6         1.0     0.289000      0.221000      0.683000     Biso  1.000000 C
   C7         1.0     0.370000      0.151000      0.809000     Biso  1.000000 C
   C8         1.0     0.480000      0.138000      0.734000     Biso  1.000000 C
   C9         1.0     0.356000      0.104000      0.961000     Biso  1.000000 C
   C10        1.0     0.246000      0.117000      1.035000     Biso  1.000000 C
   H1         1.0     0.029000      0.336000      0.152000     Biso  1.000000 H
   H2         1.0     0.041000      0.151000      0.091000     Biso  1.000000 H
   H3         1.0    -0.018000      0.197000      0.277000     Biso  1.000000 H
   H4         1.0     0.080000      0.129000      0.487000     Biso  1.000000 H
   H5         1.0     0.275000     -0.006000      0.574000     Biso  1.000000 H
   H6         1.0     0.335000      0.138000      0.459000     Biso  1.000000 H
   H7         1.0     0.325000      0.220000      0.249000     Biso  1.000000 H
   H8         1.0     0.237000      0.344000      0.133000     Biso  1.000000 H
   H9         1.0     0.521000      0.241000      0.693000     Biso  1.000000 H
   H10        1.0     0.473000      0.066000      0.626000     Biso  1.000000 H
   H11        1.0     0.583000      0.088000      0.823000     Biso  1.000000 H
   H12        1.0     0.432000      0.060000      1.015000     Biso  1.000000 H
   H13        1.0     0.218000      0.005000      1.069000     Biso  1.000000 H
   H14        1.0     0.188000      0.167000      0.946000     Biso  1.000000 H
   H15        1.0     0.213000      0.242000      0.740000     Biso  1.000000 H
   H16        1.0     0.321000      0.328000      0.639000     Biso  1.000000 H
